LAMMPS (16 Jul 2018)
echo both

include		in.temp
variable	temperature equal 400.
variable	tempDamp equal 0.1 # approx 0.1 ps
include		in.pressure
variable	pressure equal 1.
variable	pressureDamp equal 1.0
include 	in.seed
variable	seed equal 74581
units		metal
include		in.box
read_data	data.equil
  orthogonal box = (0 0 0) to (21.977 21.977 21.977)
  reading atoms ...
  250 atoms
  reading velocities ...
  250 velocities

variable 	mass equal 22.98977
mass            1 22.98977
include 	in.setup
variable	out_freq equal 500
variable	out_freq2 equal 500

neigh_modify    delay 10 every 1
include		in.na
pair_style      eam/fs
pair_coeff      * * Na_MendelevM_2014.eam.fs Na

timestep	0.002 # According to Frenkel and Smit is 0.001

thermo          500
thermo_style 	custom step temp pe press lx ly lz xy xz yz pxx pyy pzz pxy pxz pyz

restart 	500 restart.lmp restart2.lmp

# NPT

fix             1 all nve
fix             2 all temp/csvr 400 400 0.1 74581

velocity        all create 400 74581 dist gaussian

run             5000
  update every 1 steps, delay 10 steps, check yes
Step Temp PotEng Press Lx Ly Lz Xy Xz Yz Pxx Pyy Pzz Pxy Pxz Pyz
0          400   -257.19306      -1460.9       21.977       21.977       21.977            0            0            0   -1979.0178   -1425.9037   -977.77846    99.484238    478.03123    67.490531
Averages over the last 6 of 11 rows, steps 2500 to 5000:
Temp PotEng Press Lx Ly Lz Xy Xz Yz Pxx Pyy Pzz Pxy Pxz Pyz
402.14 -255.328 -803.664 21.977 21.977 21.977 0 0 0 -446.01 -1039.53 -925.45 275.651 -38.2357 -20.7187
Loop time of 1.4713 on 4 procs for 5000 steps with 250 atoms

unfix		1
unfix		2

reset_timestep	0

timer 		timeout 23:50:00 every 1000
New timer settings: style=normal  mode=nosync  timeout=23:50:00

fix             1 all plumed plumedfile plumed.dat outfile plumed.out
fix             2 all nve
fix             3 all temp/csvr 400 400 0.1 74581

run             500000
Step Temp PotEng Press Lx Ly Lz Xy Xz Yz Pxx Pyy Pzz Pxy Pxz Pyz
0     399.8257   -255.50031   -938.58566       21.977       21.977       21.977            0            0            0    376.32208   -1472.3892   -1719.6898    2.3823312   -66.904486    28.380706
Averages over the last 501 of 1001 rows, steps 250000 to 500000:
Temp PotEng Press Lx Ly Lz Xy Xz Yz Pxx Pyy Pzz Pxy Pxz Pyz
399.292 -254.821 -697.867 21.977 21.977 21.977 0 0 0 -677.972 -708.739 -706.889 -13.5537 -5.66321 -1.59285
Loop time of 161.718 on 4 procs for 500000 steps with 250 atoms
