LAMMPS (16 Jul 2018)
echo both

include		in.temp
variable	temperature equal 500.
variable	tempDamp equal 0.1 # approx 0.1 ps
include		in.pressure
variable	pressure equal 1.
variable	pressureDamp equal 1.0
include 	in.seed
variable	seed equal 74581
units		metal
include		in.box
read_data	data.equil
  orthogonal box = (0 0 0) to (21.977 21.977 21.977)
  reading atoms ...
  250 atoms
  reading velocities ...
  250 velocities

variable 	mass equal 22.98977
mass            1 22.98977
include 	in.setup
variable	out_freq equal 500
variable	out_freq2 equal 500

neigh_modify    delay 10 every 1
include		in.na
pair_style      eam/fs
pair_coeff      * * Na_MendelevM_2014.eam.fs Na

timestep	0.002 # According to Frenkel and Smit is 0.001

thermo          500
thermo_style 	custom step temp pe press lx ly lz xy xz yz pxx pyy pzz pxy pxz pyz

restart 	500 restart.lmp restart2.lmp

# NPT

fix             1 all nve
fix             2 all temp/csvr 500 500 0.1 74581

velocity        all create 500 74581 dist gaussian

run             500000 # 1 ns
  update every 1 steps, delay 10 steps, check yes
Step Temp PotEng Press Lx Ly Lz Xy Xz Yz Pxx Pyy Pzz Pxy Pxz Pyz
0          500   -257.19306   -1137.0247       21.977       21.977       21.977            0            0            0   -1654.8715   -1108.7106   -647.49191    91.506737    490.28842    74.097184
Averages over the last 500 of 1000 rows, steps 250000 to 500000:
Temp PotEng Press Lx Ly Lz Xy Xz Yz Pxx Pyy Pzz Pxy Pxz Pyz
499.619 -251.426 675.66 21.977 21.977 21.977 0 0 0 672.594 672.351 682.035 2.47353 0.258698 17.0131
Loop time of 95.7605 on 10 procs for 500000 steps with 250 atoms

unfix		1
unfix		2

reset_timestep	0

include		in.dump
dump            myDump all atom 500 dump.na
dump_modify	myDump append yes

timer 		timeout 23:50:00 every 1000
New timer settings: style=normal  mode=nosync  timeout=23:50:00

fix             1 all plumed plumedfile plumed.start.dat outfile plumed.out
fix             2 all nve
fix             3 all temp/csvr 500 500 0.1 74581

run             5000000 upto # 10ns
Step Temp PotEng Press Lx Ly Lz Xy Xz Yz Pxx Pyy Pzz Pxy Pxz Pyz
0     512.2638   -251.88564    475.59683       21.977       21.977       21.977            0            0            0    260.23094    320.34259    846.21696    312.38769    -221.1595   -103.36407
Averages over the last 5001 of 10001 rows, steps 2500000 to 5000000:
Temp PotEng Press Lx Ly Lz Xy Xz Yz Pxx Pyy Pzz Pxy Pxz Pyz
500.049 -251.422 498.921 21.977 21.977 21.977 0 0 0 495.535 505.677 495.55 3.87619 9.12631 1.45259
Loop time of 1371.14 on 10 procs for 5000000 steps with 250 atoms

write_data	data.final
System init for write_data ...

write_restart	restart.lmp
System init for write_restart ...
