LAMMPS (16 Jul 2018)
echo both

include		in.temp
variable	temperature equal 500.
variable	tempDamp equal 0.1 # approx 0.1 ps
include		in.pressure
variable	pressure equal 1.
variable	pressureDamp equal 1.0
include 	in.seed
variable	seed equal 74581
units		metal
include		in.box
read_data	data.equil
  orthogonal box = (0 0 0) to (21.977 21.977 21.977)
  reading atoms ...
  250 atoms
  reading velocities ...
  250 velocities

variable 	mass equal 22.98977
mass            1 22.98977
include 	in.setup
variable	out_freq equal 500
variable	out_freq2 equal 500

neigh_modify    delay 10 every 1
include		in.na
pair_style      eam/fs
pair_coeff      * * Na_MendelevM_2014.eam.fs Na

timestep	0.002 # According to Frenkel and Smit is 0.001

thermo          500
thermo_style 	custom step temp pe press lx ly lz xy xz yz pxx pyy pzz pxy pxz pyz

restart 	500 restart.lmp restart2.lmp

# NPT

fix             1 all nve
fix             2 all temp/csvr 500 500 0.1 74581

velocity        all create 500 74581 dist gaussian

run             5000
  update every 1 steps, delay 10 steps, check yes
Step Temp PotEng Press Lx Ly Lz Xy Xz Yz Pxx Pyy Pzz Pxy Pxz Pyz
0          500   -257.19306   -1137.0247       21.977       21.977       21.977            0            0            0   -1654.8715   -1108.7106   -647.49191    91.506737    490.28842    74.097184
Averages over the last 6 of 11 rows, steps 2500 to 5000:
Temp PotEng Press Lx Ly Lz Xy Xz Yz Pxx Pyy Pzz Pxy Pxz Pyz
491.541 -251.619 574.8 21.977 21.977 21.977 0 0 0 844.806 890.711 -11.1162 -72.749 -370.364 182.187
Loop time of 3.39113 on 2 procs for 5000 steps with 250 atoms

unfix		1
unfix		2

reset_timestep	0

timer 		timeout 23:50:00 every 1000
New timer settings: style=normal  mode=nosync  timeout=23:50:00

fix             1 all plumed plumedfile plumed.dat outfile plumed.out
fix             2 all nve
fix             3 all temp/csvr 500 500 0.1 74581

run             500000
Step Temp PotEng Press Lx Ly Lz Xy Xz Yz Pxx Pyy Pzz Pxy Pxz Pyz
0    457.42842   -250.05009    925.66916       21.977       21.977       21.977            0            0            0    1960.0285     974.5529   -157.57389   -140.35015    281.17593    709.76501
Averages over the last 501 of 1001 rows, steps 250000 to 500000:
Temp PotEng Press Lx Ly Lz Xy Xz Yz Pxx Pyy Pzz Pxy Pxz Pyz
499.772 -251.423 663.219 21.977 21.977 21.977 0 0 0 664.809 679.812 645.036 -20.8004 -8.92562 6.02019
Loop time of 396.285 on 2 procs for 500000 steps with 250 atoms
