LAMMPS (16 Jul 2018)
echo both

include		in.temp
variable	temperature equal 550.
variable	tempDamp equal 0.1 # approx 0.1 ps
include		in.pressure
variable	pressure equal 1.
variable	pressureDamp equal 1.0
include 	in.seed
variable	seed equal 74581
units		metal
include		in.box
read_data	data.equil
  orthogonal box = (0 0 0) to (21.977 21.977 21.977)
  reading atoms ...
  250 atoms
  reading velocities ...
  250 velocities

variable 	mass equal 22.98977
mass            1 22.98977
include 	in.setup
variable	out_freq equal 500
variable	out_freq2 equal 500

neigh_modify    delay 10 every 1
include		in.na
pair_style      eam/fs
pair_coeff      * * Na_MendelevM_2014.eam.fs Na

timestep	0.002 # According to Frenkel and Smit is 0.001

thermo          500
thermo_style 	custom step temp pe press lx ly lz xy xz yz pxx pyy pzz pxy pxz pyz

restart 	500 restart.lmp restart2.lmp

# NPT

fix             1 all nve
fix             2 all temp/csvr 550 550 0.1 74581

velocity        all create 550 74581 dist gaussian

run             5000
  update every 1 steps, delay 10 steps, check yes
Step Temp PotEng Press Lx Ly Lz Xy Xz Yz Pxx Pyy Pzz Pxy Pxz Pyz
0          550   -257.19306     -975.087       21.977       21.977       21.977            0            0            0   -1492.7983   -950.11405   -482.34863    87.517986    496.41702    77.400511
Averages over the last 6 of 11 rows, steps 2500 to 5000:
Temp PotEng Press Lx Ly Lz Xy Xz Yz Pxx Pyy Pzz Pxy Pxz Pyz
543.711 -249.645 1311.31 21.977 21.977 21.977 0 0 0 1219.71 1671.41 1042.83 -166.283 15.547 212.581
Loop time of 2.46769 on 2 procs for 5000 steps with 250 atoms

unfix		1
unfix		2

reset_timestep	0

timer 		timeout 23:50:00 every 1000
New timer settings: style=normal  mode=nosync  timeout=23:50:00

fix             1 all plumed plumedfile plumed.dat outfile plumed.out
fix             2 all nve
fix             3 all temp/csvr 550 550 0.1 74581

run             500000
Step Temp PotEng Press Lx Ly Lz Xy Xz Yz Pxx Pyy Pzz Pxy Pxz Pyz
0    518.34475   -248.88371      1465.49       21.977       21.977       21.977            0            0            0    1341.7028    1283.8077    1770.9594    98.122732    668.41569     294.7142
Averages over the last 501 of 1001 rows, steps 250000 to 500000:
Temp PotEng Press Lx Ly Lz Xy Xz Yz Pxx Pyy Pzz Pxy Pxz Pyz
549.683 -249.796 1353.06 21.977 21.977 21.977 0 0 0 1345.72 1364.46 1349.01 -18.9174 -8.58935 2.23814
Loop time of 393.373 on 2 procs for 500000 steps with 250 atoms
