LAMMPS (16 Jul 2018)

include		in.temp
variable	temperature equal 450.
variable	tempDamp equal 0.1 # approx 0.1 ps
include		in.pressure
variable	pressure equal 1.
variable	pressureDamp equal 1.0
include 	in.seed
variable	seed equal 74581
units		metal
include		in.box
read_data	data.equil
Reading data file ...
  orthogonal box = (0 0 0) to (21.977 21.977 21.977)
  reading atoms ...
  250 atoms
  reading velocities ...
  250 velocities

variable 	mass equal 22.98977
mass            1 22.98977
include 	in.setup
variable	out_freq equal 500
variable	out_freq2 equal 500

neigh_modify    delay 10 every 1
include		in.na
pair_style      eam/fs
pair_coeff      * * Na_MendelevM_2014.eam.fs Na

timestep	0.002 # According to Frenkel and Smit is 0.001

thermo          500
thermo_style 	custom step temp pe press lx ly lz xy xz yz pxx pyy pzz pxy pxz pyz

restart 	500 restart.lmp restart2.lmp

# NPT

fix             1 all nve
fix             2 all temp/csvr 450 450 0.1 74581

velocity        all create 450 74581 dist gaussian

run             5000
  update every 1 steps, delay 10 steps, check yes
Setting up Verlet run ...
  Unit style    : metal
  Current step  : 0
  Time step     : 0.002
Step Temp PotEng Press Lx Ly Lz Xy Xz Yz Pxx Pyy Pzz Pxy Pxz Pyz
0          450   -257.19306   -1298.9623       21.977       21.977       21.977            0            0            0   -1816.9446   -1267.3072   -812.63519    95.495487    484.15983    70.793857
Averages over the last 6 of 11 rows, steps 2500 to 5000:
Temp PotEng Press Lx Ly Lz Xy Xz Yz Pxx Pyy Pzz Pxy Pxz Pyz
443.358 -253.083 -45.924 21.977 21.977 21.977 0 0 0 -200.213 233.527 -171.086 35.7252 21.061 14.8496
Loop time of 2.56169 on 2 procs for 5000 steps with 250 atoms

unfix		1
unfix		2

reset_timestep	0

#include		in.dump

timer 		timeout 23:50:00 every 1000
New timer settings: style=normal  mode=nosync  timeout=23:50:00

fix             1 all plumed plumedfile plumed.dat outfile plumed.out
fix             2 all nve
fix             3 all temp/csvr 450 450 0.1 74581

run             500000
Setting up Verlet run ...
  Unit style    : metal
  Current step  : 0
  Time step     : 0.002
  Walltime left : 23:49:59.97
Step Temp PotEng Press Lx Ly Lz Xy Xz Yz Pxx Pyy Pzz Pxy Pxz Pyz
0    420.99218   -252.43418    64.887415       21.977       21.977       21.977            0            0            0    540.23837    254.21244   -599.78856     62.53768   -702.59042    176.35661
Averages over the last 501 of 1001 rows, steps 250000 to 500000:
Temp PotEng Press Lx Ly Lz Xy Xz Yz Pxx Pyy Pzz Pxy Pxz Pyz
449.357 -253.047 3.56574 21.977 21.977 21.977 0 0 0 -7.80135 3.80003 14.6985 35.3897 -5.21662 -8.22776
Loop time of 397.799 on 2 procs for 500000 steps with 250 atoms
