LAMMPS (16 Jul 2018)
echo both

include		in.temp
variable	temperature equal 600.
variable	tempDamp equal 0.1 # approx 0.1 ps
include		in.pressure
variable	pressure equal 1.
variable	pressureDamp equal 1.0
include 	in.seed
variable	seed equal 74581
units		metal
include		in.box
read_data	data.equil
  orthogonal box = (0 0 0) to (21.977 21.977 21.977)
  reading atoms ...
  250 atoms
  reading velocities ...
  250 velocities

variable 	mass equal 22.98977
mass            1 22.98977
include 	in.setup
variable	out_freq equal 500
variable	out_freq2 equal 500

neigh_modify    delay 10 every 1
include		in.na
pair_style      eam/fs
pair_coeff      * * Na_MendelevM_2014.eam.fs Na

timestep	0.002 # According to Frenkel and Smit is 0.001

thermo          500
thermo_style 	custom step temp pe press lx ly lz xy xz yz pxx pyy pzz pxy pxz pyz

restart 	500 restart.lmp restart2.lmp

# NPT

fix             1 all nve
fix             2 all temp/csvr 600 600 0.1 74581

velocity        all create 600 74581 dist gaussian

run             5000
  update every 1 steps, delay 10 steps, check yes
Step Temp PotEng Press Lx Ly Lz Xy Xz Yz Pxx Pyy Pzz Pxy Pxz Pyz
0          600   -257.19306   -813.14934       21.977       21.977       21.977            0            0            0   -1330.7252   -791.51749   -317.20535    83.529236    502.54562    80.703837
Averages over the last 6 of 11 rows, steps 2500 to 5000:
Temp PotEng Press Lx Ly Lz Xy Xz Yz Pxx Pyy Pzz Pxy Pxz Pyz
594.812 -248.56 1838.78 21.977 21.977 21.977 0 0 0 2107.76 1698.18 1710.39 -78.6466 80.183 -229.807
Loop time of 3.51533 on 2 procs for 5000 steps with 250 atoms

unfix		1
unfix		2

reset_timestep	0

timer 		timeout 23:50:00 every 1000
New timer settings: style=normal  mode=nosync  timeout=23:50:00

fix             1 all plumed plumedfile plumed.dat outfile plumed.out
fix             2 all nve
fix             3 all temp/csvr 600 600 0.1 74581

run             500000
Step Temp PotEng Press Lx Ly Lz Xy Xz Yz Pxx Pyy Pzz Pxy Pxz Pyz
0    562.70449    -248.2403    1987.6422       21.977       21.977       21.977            0            0            0    2633.7224     860.8696    2468.3347    1079.5011   -493.82239   -454.62195
Averages over the last 501 of 1001 rows, steps 250000 to 500000:
Temp PotEng Press Lx Ly Lz Xy Xz Yz Pxx Pyy Pzz Pxy Pxz Pyz
599.748 -248.316 1979.85 21.977 21.977 21.977 0 0 0 2019.87 1975.38 1944.32 -11.4372 -1.92834 0.57851
Loop time of 395.991 on 2 procs for 500000 steps with 250 atoms
